<additional> 
<laneAreaDetector id="29257863#2_0" lane="29257863#2_0" length="7" freq="1" file="e2output_length_7_freq_1.out.xml" pos="-7" friendlyPos="x" /> 
<laneAreaDetector id="29257863#2_1" lane="29257863#2_1" length="7" freq="1" file="e2output_length_7_freq_1.out.xml" pos="-7" friendlyPos="x" /> 
<laneAreaDetector id="29257863#2_2" lane="29257863#2_2" length="7" freq="1" file="e2output_length_7_freq_1.out.xml" pos="-7" friendlyPos="x" /> 
<laneAreaDetector id="29257863#2_3" lane="29257863#2_3" length="7" freq="1" file="e2output_length_7_freq_1.out.xml" pos="-7" friendlyPos="x" /> 
<laneAreaDetector id="29257863#2_4" lane="29257863#2_4" length="7" freq="1" file="e2output_length_7_freq_1.out.xml" pos="-7" friendlyPos="x" /> 
<laneAreaDetector id="gsndj_n7_0" lane="gsndj_n7_0" length="7" freq="1" file="e2output_length_7_freq_1.out.xml" pos="-7" friendlyPos="x" /> 
<laneAreaDetector id="gsndj_n7_1" lane="gsndj_n7_1" length="7" freq="1" file="e2output_length_7_freq_1.out.xml" pos="-7" friendlyPos="x" /> 
<laneAreaDetector id="gsndj_n7_2" lane="gsndj_n7_2" length="7" freq="1" file="e2output_length_7_freq_1.out.xml" pos="-7" friendlyPos="x" /> 
<laneAreaDetector id="gsndj_n7_3" lane="gsndj_n7_3" length="7" freq="1" file="e2output_length_7_freq_1.out.xml" pos="-7" friendlyPos="x" /> 
<laneAreaDetector id="161701303#7.248_0" lane="161701303#7.248_0" length="7" freq="1" file="e2output_length_7_freq_1.out.xml" pos="-7" friendlyPos="x" /> 
<laneAreaDetector id="161701303#7.248_1" lane="161701303#7.248_1" length="7" freq="1" file="e2output_length_7_freq_1.out.xml" pos="-7" friendlyPos="x" /> 
<laneAreaDetector id="161701303#7.248_2" lane="161701303#7.248_2" length="7" freq="1" file="e2output_length_7_freq_1.out.xml" pos="-7" friendlyPos="x" /> 
<laneAreaDetector id="161701303#7.248_3" lane="161701303#7.248_3" length="7" freq="1" file="e2output_length_7_freq_1.out.xml" pos="-7" friendlyPos="x" /> 
<laneAreaDetector id="gsndj_s4_0" lane="gsndj_s4_0" length="7" freq="1" file="e2output_length_7_freq_1.out.xml" pos="-7" friendlyPos="x" /> 
<laneAreaDetector id="gsndj_s4_1" lane="gsndj_s4_1" length="7" freq="1" file="e2output_length_7_freq_1.out.xml" pos="-7" friendlyPos="x" /> 
<laneAreaDetector id="gsndj_s4_2" lane="gsndj_s4_2" length="7" freq="1" file="e2output_length_7_freq_1.out.xml" pos="-7" friendlyPos="x" /> 
<laneAreaDetector id="gsndj_s4_3" lane="gsndj_s4_3" length="7" freq="1" file="e2output_length_7_freq_1.out.xml" pos="-7" friendlyPos="x" /> 
<laneAreaDetector id="gneE27_0" lane="gneE27_0" length="7" freq="1" file="e2output_length_7_freq_1.out.xml" pos="-7" friendlyPos="x" /> 
<laneAreaDetector id="gneE27_1" lane="gneE27_1" length="7" freq="1" file="e2output_length_7_freq_1.out.xml" pos="-7" friendlyPos="x" /> 
<laneAreaDetector id="gneE27_2" lane="gneE27_2" length="7" freq="1" file="e2output_length_7_freq_1.out.xml" pos="-7" friendlyPos="x" /> 
<laneAreaDetector id="gneE27_3" lane="gneE27_3" length="7" freq="1" file="e2output_length_7_freq_1.out.xml" pos="-7" friendlyPos="x" /> 
<laneAreaDetector id="hrj_n5_0" lane="hrj_n5_0" length="7" freq="1" file="e2output_length_7_freq_1.out.xml" pos="-7" friendlyPos="x" /> 
<laneAreaDetector id="hrj_n5_1" lane="hrj_n5_1" length="7" freq="1" file="e2output_length_7_freq_1.out.xml" pos="-7" friendlyPos="x" /> 
<laneAreaDetector id="hrj_n5_2" lane="hrj_n5_2" length="7" freq="1" file="e2output_length_7_freq_1.out.xml" pos="-7" friendlyPos="x" /> 
<laneAreaDetector id="161701303#10_0" lane="161701303#10_0" length="7" freq="1" file="e2output_length_7_freq_1.out.xml" pos="-7" friendlyPos="x" /> 
<laneAreaDetector id="161701303#10_1" lane="161701303#10_1" length="7" freq="1" file="e2output_length_7_freq_1.out.xml" pos="-7" friendlyPos="x" /> 
<laneAreaDetector id="161701303#10_2" lane="161701303#10_2" length="7" freq="1" file="e2output_length_7_freq_1.out.xml" pos="-7" friendlyPos="x" /> 
<laneAreaDetector id="161701303#10_3" lane="161701303#10_3" length="7" freq="1" file="e2output_length_7_freq_1.out.xml" pos="-7" friendlyPos="x" /> 
<laneAreaDetector id="hrj_s4_0" lane="hrj_s4_0" length="7" freq="1" file="e2output_length_7_freq_1.out.xml" pos="-7" friendlyPos="x" /> 
<laneAreaDetector id="hrj_s4_1" lane="hrj_s4_1" length="7" freq="1" file="e2output_length_7_freq_1.out.xml" pos="-7" friendlyPos="x" /> 
<laneAreaDetector id="hrj_s4_2" lane="hrj_s4_2" length="7" freq="1" file="e2output_length_7_freq_1.out.xml" pos="-7" friendlyPos="x" /> 
<laneAreaDetector id="-72631490#0_0" lane="-72631490#0_0" length="7" freq="1" file="e2output_length_7_freq_1.out.xml" pos="-7" friendlyPos="x" /> 
<laneAreaDetector id="-72631490#0_1" lane="-72631490#0_1" length="7" freq="1" file="e2output_length_7_freq_1.out.xml" pos="-7" friendlyPos="x" /> 
<laneAreaDetector id="-72631490#0_2" lane="-72631490#0_2" length="7" freq="1" file="e2output_length_7_freq_1.out.xml" pos="-7" friendlyPos="x" /> 
<laneAreaDetector id="wjj_n9_0" lane="wjj_n9_0" length="7" freq="1" file="e2output_length_7_freq_1.out.xml" pos="-7" friendlyPos="x" /> 
<laneAreaDetector id="wjj_n9_1" lane="wjj_n9_1" length="7" freq="1" file="e2output_length_7_freq_1.out.xml" pos="-7" friendlyPos="x" /> 
<laneAreaDetector id="wjj_n9_2" lane="wjj_n9_2" length="7" freq="1" file="e2output_length_7_freq_1.out.xml" pos="-7" friendlyPos="x" /> 
<laneAreaDetector id="-gneE26_0" lane="-gneE26_0" length="7" freq="1" file="e2output_length_7_freq_1.out.xml" pos="-7" friendlyPos="x" /> 
<laneAreaDetector id="-gneE26_1" lane="-gneE26_1" length="7" freq="1" file="e2output_length_7_freq_1.out.xml" pos="-7" friendlyPos="x" /> 
<laneAreaDetector id="-gneE26_2" lane="-gneE26_2" length="7" freq="1" file="e2output_length_7_freq_1.out.xml" pos="-7" friendlyPos="x" /> 
<laneAreaDetector id="wjj_s9_0" lane="wjj_s9_0" length="7" freq="1" file="e2output_length_7_freq_1.out.xml" pos="-7" friendlyPos="x" /> 
<laneAreaDetector id="wjj_s9_1" lane="wjj_s9_1" length="7" freq="1" file="e2output_length_7_freq_1.out.xml" pos="-7" friendlyPos="x" /> 
<laneAreaDetector id="wjj_s9_2" lane="wjj_s9_2" length="7" freq="1" file="e2output_length_7_freq_1.out.xml" pos="-7" friendlyPos="x" /> 
</additional> 
